/*--------------------------------*- C++ -*----------------------------------*\
  =========                 |
  \\      /  F ield         | OpenFOAM: The Open Source CFD Toolbox
   \\    /   O peration     | Website:  https://openfoam.org
    \\  /    A nd           | Version:  7
     \\/     M anipulation  |
\*---------------------------------------------------------------------------*/
FoamFile
{
    version     2.0;
    format      ascii;
    class       dictionary;
    location    "system";
    object      setFieldsDict;
}
// * * * * * * * * * * * * * * * * * * * * * * * * * * * * * * * * * * * * * //

defaultFieldValues
(
    volScalarFieldValue alpha.fluid_light 0
);

regions
(
    surfaceToCell
    {
        file            "initialVofSurfaceFine.stl";
        useSurfaceOrientation false;  // use closed surface inside/outside
                                      // test (ignores includeCut,
                                      // outsidePoints)
        outsidePoints   ((0 -0.5 0.01));    // definition of outside
        includeCut      false;              // cells cut by surface
        includeInside   true;              // cells not on outside of surf
        includeOutside  false;              // cells on outside of surf
        nearDistance    -1;                 // cells with centre near surf
                                            // (set to -1 if not used)
        curvature       0.9;                // cells within nearDistance
                                            // and near surf curvature
                                            // (set to -100 if not used)

        fieldValues
        (
            volScalarFieldValue alpha.fluid_light 1
        );
   }
);

// ************************************************************************* //
